Circuit: * C:\WORKS_2\WS\WS_Others.JVEMV6\JVEMV6\68_theoretical-physics\s-310\s-310_1.asc

Direct Newton iteration for .op point succeeded.

Date: Thu Jul 14 16:23:34 2022
Total elapsed time: 0.335 seconds.

tnom = 27
temp = 27
method = modified trap
totiter = 2085
traniter = 2082
tranpoints = 1042
accept = 1042
rejected = 0
matrix size = 2
fillins = 0
solver = Normal
Matrix Compiler1: 36 bytes object code size  0.0/0.1/[0.0]
Matrix Compiler2:       9 opcodes  0.0/[0.0]/0.1

