Circuit: * C:\WORKS_2\WS\WS_Others.JVEMV6\JVEMV6\37_miscs\25_electronics\1_LTSpice\3_\25.1_3.(1).asc


Date: Tue Jun 02 18:07:12 2020
Total elapsed time: 0.047 seconds.

tnom = 27
temp = 27
method = trap
totiter = 0
traniter = 0
tranpoints = 0
accept = 0
rejected = 0
matrix size = 3
fillins = 0
solver = Normal

