Circuit: * C:\WORKS_2\WS\WS_Others.JVEMV6\JVEMV6\68_theoretical-physics\s-312\s-311_2.asc

Limiting rise time of source v1 to 0.001
Limiting fall time of source v1 to 0.001
.OP point found by inspection.

Date: Sun Jul 17 10:57:16 2022
Total elapsed time: 0.064 seconds.

tnom = 27
temp = 27
method = modified trap
totiter = 2142
traniter = 2142
tranpoints = 1072
accept = 1065
rejected = 7
matrix size = 3
fillins = 0
solver = Normal
Matrix Compiler1: 50 bytes object code size  0.0/0.0/[0.0]
Matrix Compiler2: 175 bytes object code size  0.0/0.1/[0.0]

