Circuit: * C:\WORKS_2\WS\WS_Others.JVEMV6\JVEMV6\68_theoretical-physics\s-311\s-311_1.asc

Direct Newton iteration for .op point succeeded.

Date: Sat Jul 16 15:41:45 2022
Total elapsed time: 0.111 seconds.

tnom = 27
temp = 27
method = modified trap
totiter = 2085
traniter = 2082
tranpoints = 1042
accept = 1042
rejected = 0
matrix size = 3
fillins = 0
solver = Normal
Matrix Compiler1: 50 bytes object code size  0.0/0.0/[0.0]
Matrix Compiler2: 175 bytes object code size  0.1/0.1/[0.0]

