Circuit: * C:\WORKS_2\WS\WS_Others.JVEMV6\JVEMV6\68_theoretical-physics\s-311\s-311_2.asc


Date: Sat Jul 16 15:49:46 2022
Total elapsed time: 0.060 seconds.

tnom = 27
temp = 27
method = trap
totiter = 21
traniter = 0
tranpoints = 0
accept = 0
rejected = 0
matrix size = 2
fillins = 0
solver = Normal
Matrix Compiler1: 36 bytes object code size
Matrix Compiler2: 96 bytes object code size
