Circuit: * C:\WORKS_2\WS\WS_Others.JVEMV6\JVEMV6\37_miscs\25_electronics\1_LTSpice\25.1_10.(2)_vol=sine_LOAD=2k.asc

Direct Newton iteration for .op point succeeded.

Date: Sat Jun 13 18:01:00 2020
Total elapsed time: 0.062 seconds.

tnom = 27
temp = 27
method = trap
totiter = 5
traniter = 0
tranpoints = 0
accept = 0
rejected = 0
matrix size = 145
fillins = 162
solver = Normal
Matrix Compiler1:     958 opcodes
Matrix Compiler2: 14.91 KB object code size
