Circuit: * C:\WORKS_2\WS\WS_Others.JVEMV6\JVEMV6\37_miscs\25_electronics\1_LTSpice\25.1_10.(1)_transcient.asc

Direct Newton iteration for .op point succeeded.
Heightened Def Con from 0.0010002 to 0.0010002
Heightened Def Con from 0.00300145 +++++++++++++++++++++++++++++to 0.00300145

Date: Sat Jun 13 17:54:14 2020
Total elapsed time: 0.359 seconds.

tnom = 27
temp = 27
method = modified trap
totiter = 10567
traniter = 10562
tranpoints = 2778
accept = 2140
rejected = 669
matrix size = 145
fillins = 177
solver = Normal
Thread vector: 13.1/10.3[2] 4.4/2.9[2] 3.1/2.2[2] 1.8/36.5[1]  2592/500
Matrix Compiler1: 17.29 KB object code size  9.5/6.6/[2.3]
Matrix Compiler2: 15.20 KB object code size  4.2/5.3/[2.2]

