Circuit: * C:\WORKS_2\WS\WS_Others.JVEMV6\JVEMV6\37_miscs\25_electronics\1_LTSpice\25.1_10.(1-2)_vol=sine.asc

Direct Newton iteration for .op point succeeded.

Date: Sat Jun 13 17:55:56 2020
Total elapsed time: 0.281 seconds.

tnom = 27
temp = 27
method = modified trap
totiter = 10520
traniter = 10515
tranpoints = 2779
accept = 2227
rejected = 552
matrix size = 145
fillins = 177
solver = Normal
Thread vector: 17.8/8.2[2] 4.2/2.9[2] 3.1/1.8[2] 2.0/2.2[1]  2592/500
Matrix Compiler1: 17.29 KB object code size  9.4/6.6/[2.3]
Matrix Compiler2: 15.20 KB object code size  4.3/5.1/[2.6]

