Circuit: * C:\WORKS_2\WS\WS_Others.JVEMV6\JVEMV6\37_miscs\25_electronics\1_LTSpice\25.1_10.(2)_transcient_LOAD=2k.asc

Direct Newton iteration for .op point succeeded.

Date: Sat Jun 13 17:53:43 2020
Total elapsed time: 0.358 seconds.

tnom = 27
temp = 27
method = modified trap
totiter = 12324
traniter = 12319
tranpoints = 3148
accept = 2478
rejected = 670
matrix size = 145
fillins = 175
solver = Normal
Thread vector: 14.9/9.4[2] 4.8/3.7[2] 3.3/2.1[2] 2.0/2.6[1]  2592/500
Matrix Compiler1: 17.12 KB object code size  10.3/7.3/[2.6]
Matrix Compiler2: 15.19 KB object code size  5.0/6.0/[2.4]

