Circuit: * C:\WORKS_2\WS\WS_Others.JVEMV6\JVEMV6\37_miscs\25_electronics\1_LTSpice\25.1_11.(1).asc

Direct Newton iteration failed to find .op point.  (Use ".option noopiter" to skip.)
Starting Gmin stepping
Gmin = 10
Gmin = 1.07374
vernier = 0.5
vernier = 0.25
vernier = 0.125
vernier = 0.0625
Gmin = 1.08884
vernier = 0.03125
vernier = 0.015625
Gmin = 1.03922
vernier = 0.0078125
vernier = 0.00390625
Gmin = 1.02313
vernier = 0.00520833
vernier = 0.00260417
Gmin = 1.01616
vernier = 0.00347222
vernier = 0.00173611
vernier = 0.00231481
Gmin = 1.01205
vernier = 0.00115741
vernier = 0.00154321
vernier = 0.000771604
Gmin = 1.0104
vernier = 0.00102881
Gmin = 1.00812
vernier = 0.000514403
vernier = 0.00068587
Gmin = 1.00704
vernier = 0.000514403
vernier = 0.00068587
vernier = 0.000514402
Gmin = 1.00622
Gmin = 0
Gmin stepping failed

Starting source stepping with srcstepmethod=0
Source Step = 3.0303%
Source Step = 33.3333%
Source Step = 63.6364%
Source Step = 93.9394%
Source stepping succeeded in finding the operating point.

.step rx=16
.step rx=32
.step rx=48
.step rx=64

Date: Sun Jun 14 18:43:11 2020
Total elapsed time: 0.764 seconds.

tnom = 27
temp = 27
method = modified trap
totiter = 8916
traniter = 2144
tranpoints = 1073
accept = 1069
rejected = 4
matrix size = 16
fillins = 14
solver = Normal
Matrix Compiler1: 1.08 KB object code size  0.4/0.4/[0.1]
Matrix Compiler2: off  [0.4]/0.6/0.8

