Circuit: * C:\WORKS_2\WS\WS_Others.JVEMV6\JVEMV6\37_miscs\25_electronics\1_LTSpice\25.1_9.(1)_inverting.asc

Direct Newton iteration for .op point succeeded.

Date: Fri Jun 12 17:48:09 2020
Total elapsed time: 0.100 seconds.

tnom = 27
temp = 27
method = trap
totiter = 5
traniter = 0
tranpoints = 0
accept = 0
rejected = 0
matrix size = 145
fillins = 167
solver = Normal
Matrix Compiler1:     978 opcodes
Matrix Compiler2: 14.99 KB object code size
