Circuit: * C:\WORKS_2\WS\WS_Others.JVEMV6\JVEMV6\37_miscs\25_electronics\1_LTSpice\7_\25.1_7.(1).asc

Direct Newton iteration for .op point succeeded.

Date: Sat Jun 06 15:50:25 2020
Total elapsed time: 0.047 seconds.

tnom = 27
temp = 27
method = trap
totiter = 4
traniter = 0
tranpoints = 0
accept = 0
rejected = 0
matrix size = 10
fillins = 1
solver = Normal
Matrix Compiler1:      27 opcodes
Matrix Compiler2: 844 bytes object code size
