Circuit: * C:\WORKS_2\WS\WS_Others.JVEMV6\JVEMV6\37_miscs\24_UFO-science\others\37#24.5_2.(1).asc

WARNING: Node N001 is floating.

Direct Newton iteration failed to find .op point.  (Use ".option noopiter" to skip.)
Starting Gmin stepping
Gmin = 10
Gmin = 1.07374
Gmin = 0.115292
Gmin = 0.0123794
Gmin = 0.00132923
Gmin = 0.000142725
Gmin = 1.5325e-005
Gmin = 1.6455e-006
Gmin = 1.76685e-007
Gmin = 1.89714e-008
Gmin = 2.03704e-009
Gmin = 2.18725e-010
Gmin = 2.34854e-011
Gmin = 2.52173e-012
Gmin = 2.70769e-013
Terminal Gmin changed to 1e-014
vernier = 0.5
Gmin = 7.09803e-014
vernier = 0.666667
vernier = 0.333333
vernier = 0.166667
vernier = 0.0833333
Gmin = 3.3762e-014
vernier = 0.0416667
vernier = 0.0208333
vernier = 0.0104167
vernier = 0.00520833
vernier = 0.00260417
vernier = 0.00130208
vernier = 0.000651042
vernier = 0.000488281
Gmin = 0
Gmin stepping failed

Starting source stepping with srcstepmethod=0
Source Step = 3.0303%
Source Step = 33.3333%
Source Step = 41.6785%
vernier = 0.000976563
Source Step = 41.6963%
Source Step = 41.7259%
Source Step = 41.7554%
Source Step = 41.785%
Source Step = 41.8146%
Source Step = 41.8442%
Source Step = 41.8738%
Source Step = 41.9034%
vernier = 0.00146484
Source Step = 41.9463%
Source Step = 41.9907%
Source Step = 42.0351%
Source Step = 42.0795%
Source Step = 42.1239%
vernier = 0.00219727
Source Step = 42.186%
Source Step = 42.2526%
Source Step = 42.3192%
Source Step = 42.3858%
Source Step = 42.4524%
vernier = 0.0032959
Source Step = 42.5422%
Source Step = 42.6421%
Source Step = 42.742%
Source Step = 42.8419%
Source Step = 42.9417%
vernier = 0.00494385
Source Step = 43.0716%
Source Step = 43.2214%
Source Step = 43.3712%
Source Step = 43.521%
Source Step = 43.6708%
vernier = 0.00741577
Source Step = 43.8581%
Source Step = 44.0828%
Source Step = 44.3075%
Source Step = 44.5323%
Source Step = 44.757%
vernier = 0.0111237
Source Step = 45.0267%
Source Step = 45.3637%
Source Step = 45.7008%
Source Step = 46.0379%
Source Step = 46.375%
vernier = 0.0166855
Source Step = 46.7626%
Source Step = 47.2682%
Source Step = 47.7739%
Source Step = 48.2795%
Source Step = 48.7851%
vernier = 0.0250282
Source Step = 49.3413%
Source Step = 50.0997%
Source Step = 50.8581%
Source Step = 51.6166%
Source Step = 52.375%
vernier = 0.0375423
Source Step = 53.1714%
Source Step = 54.309%
Source Step = 55.4467%
Source Step = 56.5843%
Source Step = 57.7219%
Source Step = 58.8596%
vernier = 0.0563135
Source Step = 60.5661%
Source Step = 62.2725%
vernier = 0.0140784
Source Step = 62.2939%
vernier = 0.000879899
Source Step = 62.3099%
Source Step = 62.3365%
Source Step = 62.3632%
Source Step = 62.3899%
Source Step = 62.4165%
vernier = 0.00131985
Source Step = 62.4472%
Source Step = 62.4872%
Source Step = 62.5272%
Source Step = 62.5672%
Source Step = 62.6072%
vernier = 0.00197977
Source Step = 62.6512%
Source Step = 62.7112%
Source Step = 62.7711%
Source Step = 62.8311%
Source Step = 62.8911%
vernier = 0.00296966
Source Step = 62.9541%
Source Step = 63.0441%
Source Step = 63.1341%
Source Step = 63.2241%
Source Step = 63.3141%
Source Step = 63.4041%
vernier = 0.00445449
Source Step = 63.5391%
Source Step = 63.674%
Source Step = 63.809%
Source Step = 63.944%
Source Step = 64.079%
vernier = 0.00668173
Source Step = 64.2747%
Source Step = 64.4772%
Source Step = 64.6797%
Source Step = 64.8822%
Source Step = 65.0846%
vernier = 0.0100226
Source Step = 65.3681%
Source Step = 65.6718%
Source Step = 65.9755%
Source Step = 66.2792%
Source Step = 66.583%
vernier = 0.0150339
Source Step = 66.993%
Source Step = 67.4485%
Source Step = 67.9041%
Source Step = 68.3597%
Source Step = 68.8153%
vernier = 0.0225508
Source Step = 69.4075%
Source Step = 70.0909%
Source Step = 70.7742%
Source Step = 71.4576%
Source Step = 72.1409%
vernier = 0.0338263
Source Step = 72.9951%
Source Step = 74.0202%
Source Step = 75.0452%
Source Step = 76.0703%
Source Step = 77.0953%
vernier = 0.0507394
Source Step = 78.3253%
Source Step = 79.8629%
Source Step = 80.574%
Source Step = 80.6701%
Source Step = 80.7662%
Source Step = 80.8623%
Source Step = 80.9584%
Starting source stepping with srcstepmethod=1
Source Step = 3.0303%
Source Step = 33.3333%
Source Step = 63.6364%
Source Step = 88.6364%
Source Step = 93.1937%
vernier = 0.000976563
Source Step = 93.2114%
Source Step = 93.241%
Source Step = 93.2706%
Source Step = 93.3002%
Source Step = 93.3298%
Source Step = 93.3594%
Source Step = 93.389%
Source Step = 93.4186%
Source Step = 93.4482%
Source stepping failed

Pseudo Transient succeeded in finding the operating point at 268.44 ms.

Date: Mon Jun 22 16:24:29 2020
Total elapsed time: 0.374 seconds.

tnom = 27
temp = 27
method = modified trap
totiter = 30090
traniter = 2082
tranpoints = 1042
accept = 1042
rejected = 51
matrix size = 8
fillins = 7
solver = Normal
Matrix Compiler1: 968 bytes object code size  0.2/0.3/[0.1]
Matrix Compiler2: off  [0.2]/0.3/0.5

