Circuit: * C:\WORKS_2\WS\WS_Others.JVEMV6\JVEMV6\37_miscs\24_UFO-science\others\37#24.5_2.(2d).(1-cap,R2-100k,1-LED).asc

Direct Newton iteration for .op point succeeded.

Date: Mon Jun 22 17:19:37 2020
Total elapsed time: 0.177 seconds.

tnom = 27
temp = 27
method = modified trap
totiter = 2128
traniter = 2098
tranpoints = 1050
accept = 1050
rejected = 0
matrix size = 4
fillins = 0
solver = Normal
Matrix Compiler1: 100 bytes object code size  0.2/0.1/[0.1]
Matrix Compiler2: off  [0.1]/0.2/0.3

