Circuit: * C:\WORKS_2\WS\WS_Others.JVEMV6\JVEMV6\37_miscs\25_electronics\1_LTSpice\6_\25.1_6.(3)_impedance-100.asc

Direct Newton iteration for .op point succeeded.

Date: Fri Jun 05 15:35:34 2020
Total elapsed time: 0.047 seconds.

tnom = 27
temp = 27
method = trap
totiter = 4
traniter = 0
tranpoints = 0
accept = 0
rejected = 0
matrix size = 9
fillins = 1
solver = Normal
Matrix Compiler1:      26 opcodes
Matrix Compiler2: 791 bytes object code size
