Circuit: * C:\WORKS_2\WS\WS_Others.JVEMV6\JVEMV6\37_miscs\25_electronics\1_LTSpice\5_\25.1_5.(1).asc

Direct Newton iteration for .op point succeeded.

Date: Thu Jun 04 16:47:29 2020
Total elapsed time: 0.062 seconds.

tnom = 27
temp = 27
method = trap
totiter = 8
traniter = 0
tranpoints = 0
accept = 0
rejected = 0
matrix size = 9
fillins = 3
solver = Normal
Matrix Compiler1:      37 opcodes
Matrix Compiler2: 863 bytes object code size
