Circuit: * C:\WORKS_2\WS\WS_Others.JVEMV6\JVEMV6\37_miscs\25_electronics\1_LTSpice\5_\25.1_5.rev-1.asc

.OP point found by inspection.

Date: Thu Jun 04 16:16:37 2020
Total elapsed time: 0.063 seconds.

tnom = 27
temp = 27
method = modified trap
totiter = 2402
traniter = 2402
tranpoints = 1202
accept = 1160
rejected = 42
matrix size = 3
fillins = 0
solver = Normal
Matrix Compiler1: off  [0.0]/0.0/0.0
Matrix Compiler2: off  [0.0]/0.1/0.0

